* NGSPICE file created from user_proj_example.ext - technology: sky130A

* Black-box entry subcircuit for sky130_fd_sc_hd__decap_12 abstract view
.subckt sky130_fd_sc_hd__decap_12 VGND VNB VPB VPWR
.ends

* Black-box entry subcircuit for sky130_fd_sc_hd__fill_1 abstract view
.subckt sky130_fd_sc_hd__fill_1 VGND VNB VPB VPWR
.ends

* Black-box entry subcircuit for sky130_fd_sc_hd__decap_8 abstract view
.subckt sky130_fd_sc_hd__decap_8 VGND VNB VPB VPWR
.ends

* Black-box entry subcircuit for sky130_fd_sc_hd__decap_4 abstract view
.subckt sky130_fd_sc_hd__decap_4 VGND VNB VPB VPWR
.ends

* Black-box entry subcircuit for sky130_fd_sc_hd__diode_2 abstract view
.subckt sky130_fd_sc_hd__diode_2 DIODE VGND VNB VPB VPWR
.ends

* Black-box entry subcircuit for sky130_fd_sc_hd__buf_6 abstract view
.subckt sky130_fd_sc_hd__buf_6 A VGND VNB VPB VPWR X
.ends

* Black-box entry subcircuit for sky130_fd_sc_hd__a221o_1 abstract view
.subckt sky130_fd_sc_hd__a221o_1 A1 A2 B1 B2 C1 VGND VNB VPB VPWR X
.ends

* Black-box entry subcircuit for sky130_fd_sc_hd__fill_2 abstract view
.subckt sky130_fd_sc_hd__fill_2 VGND VNB VPB VPWR
.ends

* Black-box entry subcircuit for sky130_fd_sc_hd__a21o_4 abstract view
.subckt sky130_fd_sc_hd__a21o_4 A1 A2 B1 VGND VNB VPB VPWR X
.ends

* Black-box entry subcircuit for sky130_fd_sc_hd__buf_8 abstract view
.subckt sky130_fd_sc_hd__buf_8 A VGND VNB VPB VPWR X
.ends

* Black-box entry subcircuit for sky130_fd_sc_hd__decap_6 abstract view
.subckt sky130_fd_sc_hd__decap_6 VGND VNB VPB VPWR
.ends

* Black-box entry subcircuit for sky130_fd_sc_hd__clkbuf_2 abstract view
.subckt sky130_fd_sc_hd__clkbuf_2 A VGND VNB VPB VPWR X
.ends

* Black-box entry subcircuit for sky130_fd_sc_hd__tapvpwrvgnd_1 abstract view
.subckt sky130_fd_sc_hd__tapvpwrvgnd_1 VGND VPWR
.ends

* Black-box entry subcircuit for sky130_fd_sc_hd__decap_3 abstract view
.subckt sky130_fd_sc_hd__decap_3 VGND VNB VPB VPWR
.ends

* Black-box entry subcircuit for sky130_fd_sc_hd__o221a_4 abstract view
.subckt sky130_fd_sc_hd__o221a_4 A1 A2 B1 B2 C1 VGND VNB VPB VPWR X
.ends

* Black-box entry subcircuit for sky130_fd_sc_hd__a21o_1 abstract view
.subckt sky130_fd_sc_hd__a21o_1 A1 A2 B1 VGND VNB VPB VPWR X
.ends

* Black-box entry subcircuit for sky130_fd_sc_hd__nand3b_4 abstract view
.subckt sky130_fd_sc_hd__nand3b_4 A_N B C VGND VNB VPB VPWR Y
.ends

* Black-box entry subcircuit for sky130_fd_sc_hd__a22o_1 abstract view
.subckt sky130_fd_sc_hd__a22o_1 A1 A2 B1 B2 VGND VNB VPB VPWR X
.ends

* Black-box entry subcircuit for sky130_fd_sc_hd__conb_1 abstract view
.subckt sky130_fd_sc_hd__conb_1 VGND VNB VPB VPWR HI LO
.ends

* Black-box entry subcircuit for sky130_fd_sc_hd__clkbuf_1 abstract view
.subckt sky130_fd_sc_hd__clkbuf_1 A VGND VNB VPB VPWR X
.ends

* Black-box entry subcircuit for sky130_fd_sc_hd__buf_1 abstract view
.subckt sky130_fd_sc_hd__buf_1 A VGND VNB VPB VPWR X
.ends

* Black-box entry subcircuit for sky130_fd_sc_hd__buf_4 abstract view
.subckt sky130_fd_sc_hd__buf_4 A VGND VNB VPB VPWR X
.ends

* Black-box entry subcircuit for sky130_fd_sc_hd__clkbuf_4 abstract view
.subckt sky130_fd_sc_hd__clkbuf_4 A VGND VNB VPB VPWR X
.ends

* Black-box entry subcircuit for sky130_fd_sc_hd__dfxtp_4 abstract view
.subckt sky130_fd_sc_hd__dfxtp_4 CLK D VGND VNB VPB VPWR Q
.ends

* Black-box entry subcircuit for sky130_fd_sc_hd__o221a_2 abstract view
.subckt sky130_fd_sc_hd__o221a_2 A1 A2 B1 B2 C1 VGND VNB VPB VPWR X
.ends

* Black-box entry subcircuit for sky130_fd_sc_hd__a221o_2 abstract view
.subckt sky130_fd_sc_hd__a221o_2 A1 A2 B1 B2 C1 VGND VNB VPB VPWR X
.ends

* Black-box entry subcircuit for sky130_fd_sc_hd__a22o_4 abstract view
.subckt sky130_fd_sc_hd__a22o_4 A1 A2 B1 B2 VGND VNB VPB VPWR X
.ends

* Black-box entry subcircuit for sky130_fd_sc_hd__buf_2 abstract view
.subckt sky130_fd_sc_hd__buf_2 A VGND VNB VPB VPWR X
.ends

* Black-box entry subcircuit for sky130_fd_sc_hd__clkinv_8 abstract view
.subckt sky130_fd_sc_hd__clkinv_8 A VGND VNB VPB VPWR Y
.ends

* Black-box entry subcircuit for sky130_fd_sc_hd__a21o_2 abstract view
.subckt sky130_fd_sc_hd__a21o_2 A1 A2 B1 VGND VNB VPB VPWR X
.ends

* Black-box entry subcircuit for sky130_fd_sc_hd__or4_4 abstract view
.subckt sky130_fd_sc_hd__or4_4 A B C D VGND VNB VPB VPWR X
.ends

* Black-box entry subcircuit for sky130_fd_sc_hd__o221a_1 abstract view
.subckt sky130_fd_sc_hd__o221a_1 A1 A2 B1 B2 C1 VGND VNB VPB VPWR X
.ends

* Black-box entry subcircuit for sky130_fd_sc_hd__clkbuf_8 abstract view
.subckt sky130_fd_sc_hd__clkbuf_8 A VGND VNB VPB VPWR X
.ends

* Black-box entry subcircuit for sky130_fd_sc_hd__a22o_2 abstract view
.subckt sky130_fd_sc_hd__a22o_2 A1 A2 B1 B2 VGND VNB VPB VPWR X
.ends

* Black-box entry subcircuit for sky130_fd_sc_hd__nor2_8 abstract view
.subckt sky130_fd_sc_hd__nor2_8 A B VGND VNB VPB VPWR Y
.ends

* Black-box entry subcircuit for sky130_fd_sc_hd__mux2_2 abstract view
.subckt sky130_fd_sc_hd__mux2_2 A0 A1 S VGND VNB VPB VPWR X
.ends

* Black-box entry subcircuit for sky130_fd_sc_hd__inv_4 abstract view
.subckt sky130_fd_sc_hd__inv_4 A VGND VNB VPB VPWR Y
.ends

* Black-box entry subcircuit for sky130_fd_sc_hd__or3_4 abstract view
.subckt sky130_fd_sc_hd__or3_4 A B C VGND VNB VPB VPWR X
.ends

* Black-box entry subcircuit for sky130_fd_sc_hd__dfxtp_2 abstract view
.subckt sky130_fd_sc_hd__dfxtp_2 CLK D VGND VNB VPB VPWR Q
.ends

* Black-box entry subcircuit for sky130_fd_sc_hd__or4b_4 abstract view
.subckt sky130_fd_sc_hd__or4b_4 A B C D_N VGND VNB VPB VPWR X
.ends

* Black-box entry subcircuit for sky130_fd_sc_hd__or2_4 abstract view
.subckt sky130_fd_sc_hd__or2_4 A B VGND VNB VPB VPWR X
.ends

* Black-box entry subcircuit for sky130_fd_sc_hd__a221o_4 abstract view
.subckt sky130_fd_sc_hd__a221o_4 A1 A2 B1 B2 C1 VGND VNB VPB VPWR X
.ends

* Black-box entry subcircuit for sky130_fd_sc_hd__and2_1 abstract view
.subckt sky130_fd_sc_hd__and2_1 A B VGND VNB VPB VPWR X
.ends

* Black-box entry subcircuit for sky130_fd_sc_hd__nor2_2 abstract view
.subckt sky130_fd_sc_hd__nor2_2 A B VGND VNB VPB VPWR Y
.ends

* Black-box entry subcircuit for sky130_fd_sc_hd__dlymetal6s2s_1 abstract view
.subckt sky130_fd_sc_hd__dlymetal6s2s_1 A VGND VNB VPB VPWR X
.ends

* Black-box entry subcircuit for sky130_fd_sc_hd__clkbuf_16 abstract view
.subckt sky130_fd_sc_hd__clkbuf_16 A VGND VNB VPB VPWR X
.ends

* Black-box entry subcircuit for sky130_fd_sc_hd__nor4_2 abstract view
.subckt sky130_fd_sc_hd__nor4_2 A B C D VGND VNB VPB VPWR Y
.ends

.subckt user_proj_example io_in[0] io_in[10] io_in[11] io_in[12] io_in[13] io_in[14]
+ io_in[15] io_in[16] io_in[17] io_in[18] io_in[19] io_in[1] io_in[20] io_in[21] io_in[22]
+ io_in[23] io_in[24] io_in[25] io_in[26] io_in[27] io_in[28] io_in[29] io_in[2] io_in[30]
+ io_in[31] io_in[32] io_in[33] io_in[34] io_in[35] io_in[36] io_in[37] io_in[3] io_in[4]
+ io_in[5] io_in[6] io_in[7] io_in[8] io_in[9] io_oeb[0] io_oeb[10] io_oeb[11] io_oeb[12]
+ io_oeb[13] io_oeb[14] io_oeb[15] io_oeb[16] io_oeb[17] io_oeb[18] io_oeb[19] io_oeb[1]
+ io_oeb[20] io_oeb[21] io_oeb[22] io_oeb[23] io_oeb[24] io_oeb[25] io_oeb[26] io_oeb[27]
+ io_oeb[28] io_oeb[29] io_oeb[2] io_oeb[30] io_oeb[31] io_oeb[32] io_oeb[33] io_oeb[34]
+ io_oeb[35] io_oeb[36] io_oeb[37] io_oeb[3] io_oeb[4] io_oeb[5] io_oeb[6] io_oeb[7]
+ io_oeb[8] io_oeb[9] io_out[0] io_out[10] io_out[11] io_out[12] io_out[13] io_out[14]
+ io_out[15] io_out[16] io_out[17] io_out[18] io_out[19] io_out[1] io_out[20] io_out[21]
+ io_out[22] io_out[23] io_out[24] io_out[25] io_out[26] io_out[27] io_out[28] io_out[29]
+ io_out[2] io_out[30] io_out[31] io_out[32] io_out[33] io_out[34] io_out[35] io_out[36]
+ io_out[37] io_out[3] io_out[4] io_out[5] io_out[6] io_out[7] io_out[8] io_out[9]
+ irq[0] irq[1] irq[2] la_data_in[0] la_data_in[100] la_data_in[101] la_data_in[102]
+ la_data_in[103] la_data_in[104] la_data_in[105] la_data_in[106] la_data_in[107]
+ la_data_in[108] la_data_in[109] la_data_in[10] la_data_in[110] la_data_in[111] la_data_in[112]
+ la_data_in[113] la_data_in[114] la_data_in[115] la_data_in[116] la_data_in[117]
+ la_data_in[118] la_data_in[119] la_data_in[11] la_data_in[120] la_data_in[121] la_data_in[122]
+ la_data_in[123] la_data_in[124] la_data_in[125] la_data_in[126] la_data_in[127]
+ la_data_in[12] la_data_in[13] la_data_in[14] la_data_in[15] la_data_in[16] la_data_in[17]
+ la_data_in[18] la_data_in[19] la_data_in[1] la_data_in[20] la_data_in[21] la_data_in[22]
+ la_data_in[23] la_data_in[24] la_data_in[25] la_data_in[26] la_data_in[27] la_data_in[28]
+ la_data_in[29] la_data_in[2] la_data_in[30] la_data_in[31] la_data_in[32] la_data_in[33]
+ la_data_in[34] la_data_in[35] la_data_in[36] la_data_in[37] la_data_in[38] la_data_in[39]
+ la_data_in[3] la_data_in[40] la_data_in[41] la_data_in[42] la_data_in[43] la_data_in[44]
+ la_data_in[45] la_data_in[46] la_data_in[47] la_data_in[48] la_data_in[49] la_data_in[4]
+ la_data_in[50] la_data_in[51] la_data_in[52] la_data_in[53] la_data_in[54] la_data_in[55]
+ la_data_in[56] la_data_in[57] la_data_in[58] la_data_in[59] la_data_in[5] la_data_in[60]
+ la_data_in[61] la_data_in[62] la_data_in[63] la_data_in[64] la_data_in[65] la_data_in[66]
+ la_data_in[67] la_data_in[68] la_data_in[69] la_data_in[6] la_data_in[70] la_data_in[71]
+ la_data_in[72] la_data_in[73] la_data_in[74] la_data_in[75] la_data_in[76] la_data_in[77]
+ la_data_in[78] la_data_in[79] la_data_in[7] la_data_in[80] la_data_in[81] la_data_in[82]
+ la_data_in[83] la_data_in[84] la_data_in[85] la_data_in[86] la_data_in[87] la_data_in[88]
+ la_data_in[89] la_data_in[8] la_data_in[90] la_data_in[91] la_data_in[92] la_data_in[93]
+ la_data_in[94] la_data_in[95] la_data_in[96] la_data_in[97] la_data_in[98] la_data_in[99]
+ la_data_in[9] la_data_out[0] la_data_out[100] la_data_out[101] la_data_out[102]
+ la_data_out[103] la_data_out[104] la_data_out[105] la_data_out[106] la_data_out[107]
+ la_data_out[108] la_data_out[109] la_data_out[10] la_data_out[110] la_data_out[111]
+ la_data_out[112] la_data_out[113] la_data_out[114] la_data_out[115] la_data_out[116]
+ la_data_out[117] la_data_out[118] la_data_out[119] la_data_out[11] la_data_out[120]
+ la_data_out[121] la_data_out[122] la_data_out[123] la_data_out[124] la_data_out[125]
+ la_data_out[126] la_data_out[127] la_data_out[12] la_data_out[13] la_data_out[14]
+ la_data_out[15] la_data_out[16] la_data_out[17] la_data_out[18] la_data_out[19]
+ la_data_out[1] la_data_out[20] la_data_out[21] la_data_out[22] la_data_out[23] la_data_out[24]
+ la_data_out[25] la_data_out[26] la_data_out[27] la_data_out[28] la_data_out[29]
+ la_data_out[2] la_data_out[30] la_data_out[31] la_data_out[32] la_data_out[33] la_data_out[34]
+ la_data_out[35] la_data_out[36] la_data_out[37] la_data_out[38] la_data_out[39]
+ la_data_out[3] la_data_out[40] la_data_out[41] la_data_out[42] la_data_out[43] la_data_out[44]
+ la_data_out[45] la_data_out[46] la_data_out[47] la_data_out[48] la_data_out[49]
+ la_data_out[4] la_data_out[50] la_data_out[51] la_data_out[52] la_data_out[53] la_data_out[54]
+ la_data_out[55] la_data_out[56] la_data_out[57] la_data_out[58] la_data_out[59]
+ la_data_out[5] la_data_out[60] la_data_out[61] la_data_out[62] la_data_out[63] la_data_out[64]
+ la_data_out[65] la_data_out[66] la_data_out[67] la_data_out[68] la_data_out[69]
+ la_data_out[6] la_data_out[70] la_data_out[71] la_data_out[72] la_data_out[73] la_data_out[74]
+ la_data_out[75] la_data_out[76] la_data_out[77] la_data_out[78] la_data_out[79]
+ la_data_out[7] la_data_out[80] la_data_out[81] la_data_out[82] la_data_out[83] la_data_out[84]
+ la_data_out[85] la_data_out[86] la_data_out[87] la_data_out[88] la_data_out[89]
+ la_data_out[8] la_data_out[90] la_data_out[91] la_data_out[92] la_data_out[93] la_data_out[94]
+ la_data_out[95] la_data_out[96] la_data_out[97] la_data_out[98] la_data_out[99]
+ la_data_out[9] la_oenb[0] la_oenb[100] la_oenb[101] la_oenb[102] la_oenb[103] la_oenb[104]
+ la_oenb[105] la_oenb[106] la_oenb[107] la_oenb[108] la_oenb[109] la_oenb[10] la_oenb[110]
+ la_oenb[111] la_oenb[112] la_oenb[113] la_oenb[114] la_oenb[115] la_oenb[116] la_oenb[117]
+ la_oenb[118] la_oenb[119] la_oenb[11] la_oenb[120] la_oenb[121] la_oenb[122] la_oenb[123]
+ la_oenb[124] la_oenb[125] la_oenb[126] la_oenb[127] la_oenb[12] la_oenb[13] la_oenb[14]
+ la_oenb[15] la_oenb[16] la_oenb[17] la_oenb[18] la_oenb[19] la_oenb[1] la_oenb[20]
+ la_oenb[21] la_oenb[22] la_oenb[23] la_oenb[24] la_oenb[25] la_oenb[26] la_oenb[27]
+ la_oenb[28] la_oenb[29] la_oenb[2] la_oenb[30] la_oenb[31] la_oenb[32] la_oenb[33]
+ la_oenb[34] la_oenb[35] la_oenb[36] la_oenb[37] la_oenb[38] la_oenb[39] la_oenb[3]
+ la_oenb[40] la_oenb[41] la_oenb[42] la_oenb[43] la_oenb[44] la_oenb[45] la_oenb[46]
+ la_oenb[47] la_oenb[48] la_oenb[49] la_oenb[4] la_oenb[50] la_oenb[51] la_oenb[52]
+ la_oenb[53] la_oenb[54] la_oenb[55] la_oenb[56] la_oenb[57] la_oenb[58] la_oenb[59]
+ la_oenb[5] la_oenb[60] la_oenb[61] la_oenb[62] la_oenb[63] la_oenb[64] la_oenb[65]
+ la_oenb[66] la_oenb[67] la_oenb[68] la_oenb[69] la_oenb[6] la_oenb[70] la_oenb[71]
+ la_oenb[72] la_oenb[73] la_oenb[74] la_oenb[75] la_oenb[76] la_oenb[77] la_oenb[78]
+ la_oenb[79] la_oenb[7] la_oenb[80] la_oenb[81] la_oenb[82] la_oenb[83] la_oenb[84]
+ la_oenb[85] la_oenb[86] la_oenb[87] la_oenb[88] la_oenb[89] la_oenb[8] la_oenb[90]
+ la_oenb[91] la_oenb[92] la_oenb[93] la_oenb[94] la_oenb[95] la_oenb[96] la_oenb[97]
+ la_oenb[98] la_oenb[99] la_oenb[9] user_clock2 wb_clk_i wb_rst_i wbs_ack_o wbs_adr_i[0]
+ wbs_adr_i[10] wbs_adr_i[11] wbs_adr_i[12] wbs_adr_i[13] wbs_adr_i[14] wbs_adr_i[15]
+ wbs_adr_i[16] wbs_adr_i[17] wbs_adr_i[18] wbs_adr_i[19] wbs_adr_i[1] wbs_adr_i[20]
+ wbs_adr_i[21] wbs_adr_i[22] wbs_adr_i[23] wbs_adr_i[24] wbs_adr_i[25] wbs_adr_i[26]
+ wbs_adr_i[27] wbs_adr_i[28] wbs_adr_i[29] wbs_adr_i[2] wbs_adr_i[30] wbs_adr_i[31]
+ wbs_adr_i[3] wbs_adr_i[4] wbs_adr_i[5] wbs_adr_i[6] wbs_adr_i[7] wbs_adr_i[8] wbs_adr_i[9]
+ wbs_cyc_i wbs_dat_i[0] wbs_dat_i[10] wbs_dat_i[11] wbs_dat_i[12] wbs_dat_i[13] wbs_dat_i[14]
+ wbs_dat_i[15] wbs_dat_i[16] wbs_dat_i[17] wbs_dat_i[18] wbs_dat_i[19] wbs_dat_i[1]
+ wbs_dat_i[20] wbs_dat_i[21] wbs_dat_i[22] wbs_dat_i[23] wbs_dat_i[24] wbs_dat_i[25]
+ wbs_dat_i[26] wbs_dat_i[27] wbs_dat_i[28] wbs_dat_i[29] wbs_dat_i[2] wbs_dat_i[30]
+ wbs_dat_i[31] wbs_dat_i[3] wbs_dat_i[4] wbs_dat_i[5] wbs_dat_i[6] wbs_dat_i[7] wbs_dat_i[8]
+ wbs_dat_i[9] wbs_dat_o[0] wbs_dat_o[10] wbs_dat_o[11] wbs_dat_o[12] wbs_dat_o[13]
+ wbs_dat_o[14] wbs_dat_o[15] wbs_dat_o[16] wbs_dat_o[17] wbs_dat_o[18] wbs_dat_o[19]
+ wbs_dat_o[1] wbs_dat_o[20] wbs_dat_o[21] wbs_dat_o[22] wbs_dat_o[23] wbs_dat_o[24]
+ wbs_dat_o[25] wbs_dat_o[26] wbs_dat_o[27] wbs_dat_o[28] wbs_dat_o[29] wbs_dat_o[2]
+ wbs_dat_o[30] wbs_dat_o[31] wbs_dat_o[3] wbs_dat_o[4] wbs_dat_o[5] wbs_dat_o[6]
+ wbs_dat_o[7] wbs_dat_o[8] wbs_dat_o[9] wbs_sel_i[0] wbs_sel_i[1] wbs_sel_i[2] wbs_sel_i[3]
+ wbs_stb_i wbs_we_i vccd1 vssd1 vccd2 vssd2 vdda1 vssa1 vdda2 vssa2 vdda1_uq0 vdda1_uq1
+ vdda1_uq2 vccd2_uq0 vccd2_uq1 vccd2_uq2 vssa2_uq0 vssa2_uq1 vssa1_uq0 vssa1_uq1
+ vssd2_uq0 vssd2_uq1 vdda2_uq0 vdda2_uq1
XFILLER_54_225 vssd1 vssd1 vccd1 vccd1 sky130_fd_sc_hd__decap_12
XFILLER_36_940 vssd1 vssd1 vccd1 vccd1 sky130_fd_sc_hd__fill_1
XFILLER_54_258 vssd1 vssd1 vccd1 vccd1 sky130_fd_sc_hd__decap_12
XFILLER_63_770 vssd1 vssd1 vccd1 vccd1 sky130_fd_sc_hd__decap_8
XFILLER_51_976 vssd1 vssd1 vccd1 vccd1 sky130_fd_sc_hd__fill_1
XFILLER_50_453 vssd1 vssd1 vccd1 vccd1 sky130_fd_sc_hd__decap_12
XFILLER_10_306 vssd1 vssd1 vccd1 vccd1 sky130_fd_sc_hd__decap_8
XFILLER_22_144 vssd1 vssd1 vccd1 vccd1 sky130_fd_sc_hd__decap_12
XFILLER_50_497 vssd1 vssd1 vccd1 vccd1 sky130_fd_sc_hd__decap_12
XFILLER_50_486 vssd1 vssd1 vccd1 vccd1 sky130_fd_sc_hd__decap_4
XFILLER_46_726 vssd1 vssd1 vccd1 vccd1 sky130_fd_sc_hd__decap_12
XANTENNA_213 _555_/LO vssd1 vssd1 vccd1 vccd1 sky130_fd_sc_hd__diode_2
XANTENNA_224 _735_/Q vssd1 vssd1 vccd1 vccd1 sky130_fd_sc_hd__diode_2
XANTENNA_202 _740_/Q vssd1 vssd1 vccd1 vccd1 sky130_fd_sc_hd__diode_2
X_501_ _501_/A vssd1 vssd1 vccd1 vccd1 _501_/X sky130_fd_sc_hd__buf_6
XFILLER_26_30 vssd1 vssd1 vccd1 vccd1 sky130_fd_sc_hd__decap_12
XFILLER_27_940 vssd1 vssd1 vccd1 vccd1 sky130_fd_sc_hd__decap_12
XANTENNA_268 _676_/LO vssd1 vssd1 vccd1 vccd1 sky130_fd_sc_hd__diode_2
XFILLER_42_921 vssd1 vssd1 vccd1 vccd1 sky130_fd_sc_hd__decap_12
XANTENNA_257 _669_/LO vssd1 vssd1 vccd1 vccd1 sky130_fd_sc_hd__diode_2
XANTENNA_235 _561_/LO vssd1 vssd1 vccd1 vccd1 sky130_fd_sc_hd__diode_2
XANTENNA_246 _706_/Q vssd1 vssd1 vccd1 vccd1 sky130_fd_sc_hd__diode_2
X_432_ _488_/B1 _428_/X _760_/Q _429_/X _535_/A vssd1 vssd1 vccd1 vccd1 _760_/D sky130_fd_sc_hd__a221o_1
XFILLER_14_612 vssd1 vssd1 vccd1 vccd1 sky130_fd_sc_hd__fill_2
XFILLER_14_623 vssd1 vssd1 vccd1 vccd1 sky130_fd_sc_hd__decap_8
XFILLER_42_954 vssd1 vssd1 vccd1 vccd1 sky130_fd_sc_hd__decap_12
XANTENNA_279 _685_/LO vssd1 vssd1 vccd1 vccd1 sky130_fd_sc_hd__diode_2
XFILLER_9_115 vssd1 vssd1 vccd1 vccd1 sky130_fd_sc_hd__fill_2
XFILLER_13_166 vssd1 vssd1 vccd1 vccd1 sky130_fd_sc_hd__decap_4
X_363_ _745_/Q _352_/X _357_/X vssd1 vssd1 vccd1 vccd1 _363_/X sky130_fd_sc_hd__a21o_4
X_294_ _312_/A vssd1 vssd1 vccd1 vccd1 _547_/B sky130_fd_sc_hd__buf_8
XFILLER_10_840 vssd1 vssd1 vccd1 vccd1 sky130_fd_sc_hd__decap_12
XFILLER_5_343 vssd1 vssd1 vccd1 vccd1 sky130_fd_sc_hd__decap_12
XFILLER_5_398 vssd1 vssd1 vccd1 vccd1 sky130_fd_sc_hd__fill_1
XFILLER_3_45 vssd1 vssd1 vccd1 vccd1 sky130_fd_sc_hd__decap_4
XFILLER_3_23 vssd1 vssd1 vccd1 vccd1 sky130_fd_sc_hd__decap_4
XFILLER_1_571 vssd1 vssd1 vccd1 vccd1 sky130_fd_sc_hd__decap_4
XFILLER_1_593 vssd1 vssd1 vccd1 vccd1 sky130_fd_sc_hd__decap_8
XFILLER_64_523 vssd1 vssd1 vccd1 vccd1 sky130_fd_sc_hd__decap_4
XFILLER_36_225 vssd1 vssd1 vccd1 vccd1 sky130_fd_sc_hd__decap_12
XFILLER_64_578 vssd1 vssd1 vccd1 vccd1 sky130_fd_sc_hd__fill_2
XFILLER_36_258 vssd1 vssd1 vccd1 vccd1 sky130_fd_sc_hd__decap_12
XFILLER_64_589 vssd1 vssd1 vccd1 vccd1 sky130_fd_sc_hd__decap_4
XFILLER_17_450 vssd1 vssd1 vccd1 vccd1 sky130_fd_sc_hd__decap_6
XFILLER_32_453 vssd1 vssd1 vccd1 vccd1 sky130_fd_sc_hd__decap_12
XFILLER_60_795 vssd1 vssd1 vccd1 vccd1 sky130_fd_sc_hd__decap_12
XFILLER_20_648 vssd1 vssd1 vccd1 vccd1 sky130_fd_sc_hd__decap_8
XFILLER_32_486 vssd1 vssd1 vccd1 vccd1 sky130_fd_sc_hd__decap_12
Xoutput401 _735_/Q vssd1 vssd1 vccd1 vccd1 io_oeb[5] sky130_fd_sc_hd__clkbuf_2
XFILLER_8_192 vssd1 vssd1 vccd1 vccd1 sky130_fd_sc_hd__decap_8
Xoutput412 _713_/Q vssd1 vssd1 vccd1 vccd1 io_out[15] sky130_fd_sc_hd__clkbuf_2
Xoutput434 _563_/LO vssd1 vssd1 vccd1 vccd1 io_out[35] sky130_fd_sc_hd__clkbuf_2
Xoutput423 _723_/Q vssd1 vssd1 vccd1 vccd1 io_out[25] sky130_fd_sc_hd__clkbuf_2
Xoutput445 _566_/LO vssd1 vssd1 vccd1 vccd1 irq[1] sky130_fd_sc_hd__clkbuf_2
Xoutput467 _686_/LO vssd1 vssd1 vccd1 vccd1 la_data_out[118] sky130_fd_sc_hd__clkbuf_2
Xoutput456 _676_/LO vssd1 vssd1 vccd1 vccd1 la_data_out[108] sky130_fd_sc_hd__clkbuf_2
Xoutput478 _580_/LO vssd1 vssd1 vccd1 vccd1 la_data_out[12] sky130_fd_sc_hd__clkbuf_2
XFILLER_59_317 vssd1 vssd1 vccd1 vccd1 sky130_fd_sc_hd__decap_12
Xoutput489 _590_/LO vssd1 vssd1 vccd1 vccd1 la_data_out[22] sky130_fd_sc_hd__clkbuf_2
XFILLER_28_726 vssd1 vssd1 vccd1 vccd1 sky130_fd_sc_hd__decap_12
XFILLER_63_39 vssd1 vssd1 vccd1 vccd1 sky130_fd_sc_hd__decap_12
XFILLER_42_228 vssd1 vssd1 vccd1 vccd1 sky130_fd_sc_hd__decap_12
XPHY_927 vssd1 vccd1 sky130_fd_sc_hd__tapvpwrvgnd_1
XPHY_916 vssd1 vccd1 sky130_fd_sc_hd__tapvpwrvgnd_1
XPHY_905 vssd1 vccd1 sky130_fd_sc_hd__tapvpwrvgnd_1
XFILLER_24_954 vssd1 vssd1 vccd1 vccd1 sky130_fd_sc_hd__decap_4
XPHY_949 vssd1 vccd1 sky130_fd_sc_hd__tapvpwrvgnd_1
XPHY_938 vssd1 vccd1 sky130_fd_sc_hd__tapvpwrvgnd_1
XFILLER_11_604 vssd1 vssd1 vccd1 vccd1 sky130_fd_sc_hd__decap_12
XFILLER_51_795 vssd1 vssd1 vccd1 vccd1 sky130_fd_sc_hd__decap_3
XFILLER_50_294 vssd1 vssd1 vccd1 vccd1 sky130_fd_sc_hd__decap_12
XFILLER_7_619 vssd1 vssd1 vccd1 vccd1 sky130_fd_sc_hd__decap_8
XFILLER_12_87 vssd1 vssd1 vccd1 vccd1 sky130_fd_sc_hd__decap_12
XFILLER_2_313 vssd1 vssd1 vccd1 vccd1 sky130_fd_sc_hd__fill_1
XFILLER_3_869 vssd1 vssd1 vccd1 vccd1 sky130_fd_sc_hd__decap_4
XFILLER_2_379 vssd1 vssd1 vccd1 vccd1 sky130_fd_sc_hd__decap_4
XFILLER_59_884 vssd1 vssd1 vccd1 vccd1 sky130_fd_sc_hd__decap_12
XFILLER_58_372 vssd1 vssd1 vccd1 vccd1 sky130_fd_sc_hd__decap_12
XFILLER_46_534 vssd1 vssd1 vccd1 vccd1 sky130_fd_sc_hd__decap_8
XFILLER_18_225 vssd1 vssd1 vccd1 vccd1 sky130_fd_sc_hd__decap_12
XFILLER_37_51 vssd1 vssd1 vccd1 vccd1 sky130_fd_sc_hd__decap_6
XFILLER_18_258 vssd1 vssd1 vccd1 vccd1 sky130_fd_sc_hd__decap_12
XFILLER_61_526 vssd1 vssd1 vccd1 vccd1 sky130_fd_sc_hd__decap_12
XFILLER_2_1051 vssd1 vssd1 vccd1 vccd1 sky130_fd_sc_hd__decap_4
X_415_ _765_/Q _405_/X _413_/X _414_/X _408_/X vssd1 vssd1 vccd1 vccd1 _765_/D sky130_fd_sc_hd__o221a_4
XFILLER_42_762 vssd1 vssd1 vccd1 vccd1 sky130_fd_sc_hd__decap_8
XFILLER_14_453 vssd1 vssd1 vccd1 vccd1 sky130_fd_sc_hd__decap_12
XFILLER_15_976 vssd1 vssd1 vccd1 vccd1 sky130_fd_sc_hd__fill_1
XFILLER_53_94 vssd1 vssd1 vccd1 vccd1 sky130_fd_sc_hd__decap_12
X_346_ _749_/Q _331_/X _336_/X vssd1 vssd1 vccd1 vccd1 _346_/X sky130_fd_sc_hd__a21o_1
XFILLER_14_486 vssd1 vssd1 vccd1 vccd1 sky130_fd_sc_hd__decap_12
XFILLER_10_681 vssd1 vssd1 vccd1 vccd1 sky130_fd_sc_hd__decap_12
X_277_ _697_/Q _277_/B _277_/C vssd1 vssd1 vccd1 vccd1 _535_/B sky130_fd_sc_hd__nand3b_4
XFILLER_5_184 vssd1 vssd1 vccd1 vccd1 sky130_fd_sc_hd__decap_12
XFILLER_64_1035 vssd1 vssd1 vccd1 vccd1 sky130_fd_sc_hd__decap_8
XFILLER_64_1024 vssd1 vssd1 vccd1 vccd1 sky130_fd_sc_hd__decap_6
XFILLER_64_1057 vssd1 vssd1 vccd1 vccd1 sky130_fd_sc_hd__fill_2
XFILLER_64_320 vssd1 vssd1 vccd1 vccd1 sky130_fd_sc_hd__decap_4
XFILLER_64_386 vssd1 vssd1 vccd1 vccd1 sky130_fd_sc_hd__decap_6
XFILLER_64_375 vssd1 vssd1 vccd1 vccd1 sky130_fd_sc_hd__fill_2
XFILLER_52_537 vssd1 vssd1 vccd1 vccd1 sky130_fd_sc_hd__decap_4
XFILLER_21_902 vssd1 vssd1 vccd1 vccd1 sky130_fd_sc_hd__decap_8
XFILLER_21_913 vssd1 vssd1 vccd1 vccd1 sky130_fd_sc_hd__decap_12
XFILLER_33_762 vssd1 vssd1 vccd1 vccd1 sky130_fd_sc_hd__fill_1
XFILLER_60_581 vssd1 vssd1 vccd1 vccd1 sky130_fd_sc_hd__decap_12
XFILLER_33_795 vssd1 vssd1 vccd1 vccd1 sky130_fd_sc_hd__decap_3
XFILLER_32_294 vssd1 vssd1 vccd1 vccd1 sky130_fd_sc_hd__decap_6
XFILLER_56_876 vssd1 vssd1 vccd1 vccd1 sky130_fd_sc_hd__decap_8
XFILLER_28_534 vssd1 vssd1 vccd1 vccd1 sky130_fd_sc_hd__decap_8
XFILLER_28_567 vssd1 vssd1 vccd1 vccd1 sky130_fd_sc_hd__decap_12
XFILLER_43_526 vssd1 vssd1 vccd1 vccd1 sky130_fd_sc_hd__decap_12
XFILLER_16_729 vssd1 vssd1 vccd1 vccd1 sky130_fd_sc_hd__decap_8
XPHY_702 vssd1 vccd1 sky130_fd_sc_hd__tapvpwrvgnd_1
XPHY_713 vssd1 vccd1 sky130_fd_sc_hd__tapvpwrvgnd_1
XPHY_724 vssd1 vccd1 sky130_fd_sc_hd__tapvpwrvgnd_1
XPHY_735 vssd1 vccd1 sky130_fd_sc_hd__tapvpwrvgnd_1
XPHY_1323 vssd1 vccd1 sky130_fd_sc_hd__tapvpwrvgnd_1
XPHY_1312 vssd1 vccd1 sky130_fd_sc_hd__tapvpwrvgnd_1
XPHY_1301 vssd1 vccd1 sky130_fd_sc_hd__tapvpwrvgnd_1
XFILLER_24_795 vssd1 vssd1 vccd1 vccd1 sky130_fd_sc_hd__decap_12
XPHY_746 vssd1 vccd1 sky130_fd_sc_hd__tapvpwrvgnd_1
XPHY_757 vssd1 vccd1 sky130_fd_sc_hd__tapvpwrvgnd_1
XPHY_768 vssd1 vccd1 sky130_fd_sc_hd__tapvpwrvgnd_1
XPHY_1356 vssd1 vccd1 sky130_fd_sc_hd__tapvpwrvgnd_1
XPHY_1345 vssd1 vccd1 sky130_fd_sc_hd__tapvpwrvgnd_1
XPHY_1334 vssd1 vccd1 sky130_fd_sc_hd__tapvpwrvgnd_1
XPHY_779 vssd1 vccd1 sky130_fd_sc_hd__tapvpwrvgnd_1
XFILLER_20_990 vssd1 vssd1 vccd1 vccd1 sky130_fd_sc_hd__decap_8
XFILLER_3_677 vssd1 vssd1 vccd1 vccd1 sky130_fd_sc_hd__decap_6
XFILLER_3_699 vssd1 vssd1 vccd1 vccd1 sky130_fd_sc_hd__decap_4
XFILLER_2_176 vssd1 vssd1 vccd1 vccd1 sky130_fd_sc_hd__fill_2
XFILLER_48_83 vssd1 vssd1 vccd1 vccd1 sky130_fd_sc_hd__decap_3
XFILLER_19_512 vssd1 vssd1 vccd1 vccd1 sky130_fd_sc_hd__fill_1
XFILLER_58_180 vssd1 vssd1 vccd1 vccd1 sky130_fd_sc_hd__fill_1
XFILLER_62_824 vssd1 vssd1 vccd1 vccd1 sky130_fd_sc_hd__decap_3
XFILLER_0_57 vssd1 vssd1 vccd1 vccd1 sky130_fd_sc_hd__fill_1
XFILLER_61_334 vssd1 vssd1 vccd1 vccd1 sky130_fd_sc_hd__decap_8
XFILLER_61_367 vssd1 vssd1 vccd1 vccd1 sky130_fd_sc_hd__decap_12
XFILLER_15_740 vssd1 vssd1 vccd1 vccd1 sky130_fd_sc_hd__fill_1
XFILLER_42_592 vssd1 vssd1 vccd1 vccd1 sky130_fd_sc_hd__decap_6
X_329_ _721_/Q _312_/X _329_/B1 _317_/X vssd1 vssd1 vccd1 vccd1 _329_/X sky130_fd_sc_hd__a22o_1
XFILLER_7_994 vssd1 vssd1 vccd1 vccd1 sky130_fd_sc_hd__decap_12
XFILLER_50_3 vssd1 vssd1 vccd1 vccd1 sky130_fd_sc_hd__decap_8
XFILLER_57_607 vssd1 vssd1 vccd1 vccd1 sky130_fd_sc_hd__decap_12
XFILLER_49_191 vssd1 vssd1 vccd1 vccd1 sky130_fd_sc_hd__decap_12
XFILLER_38_876 vssd1 vssd1 vccd1 vccd1 sky130_fd_sc_hd__decap_8
XFILLER_64_183 vssd1 vssd1 vccd1 vccd1 sky130_fd_sc_hd__decap_8
XFILLER_53_868 vssd1 vssd1 vccd1 vccd1 sky130_fd_sc_hd__decap_12
XFILLER_53_835 vssd1 vssd1 vccd1 vccd1 sky130_fd_sc_hd__decap_12
XFILLER_25_526 vssd1 vssd1 vccd1 vccd1 sky130_fd_sc_hd__decap_12
XFILLER_37_397 vssd1 vssd1 vccd1 vccd1 sky130_fd_sc_hd__fill_2
XFILLER_5_909 vssd1 vssd1 vccd1 vccd1 sky130_fd_sc_hd__decap_3
XFILLER_0_647 vssd1 vssd1 vccd1 vccd1 sky130_fd_sc_hd__fill_2
XFILLER_47_106 vssd1 vssd1 vccd1 vccd1 sky130_fd_sc_hd__decap_8
X_680_ vssd1 vssd1 vccd1 vccd1 _680_/HI _680_/LO sky130_fd_sc_hd__conb_1
XFILLER_29_854 vssd1 vssd1 vccd1 vccd1 sky130_fd_sc_hd__fill_1
XFILLER_55_150 vssd1 vssd1 vccd1 vccd1 sky130_fd_sc_hd__decap_12
XFILLER_55_172 vssd1 vssd1 vccd1 vccd1 sky130_fd_sc_hd__decap_12
XFILLER_43_334 vssd1 vssd1 vccd1 vccd1 sky130_fd_sc_hd__decap_8
XFILLER_43_367 vssd1 vssd1 vccd1 vccd1 sky130_fd_sc_hd__decap_12
XPHY_510 vssd1 vccd1 sky130_fd_sc_hd__tapvpwrvgnd_1
XFILLER_34_30 vssd1 vssd1 vccd1 vccd1 sky130_fd_sc_hd__decap_8
XPHY_521 vssd1 vccd1 sky130_fd_sc_hd__tapvpwrvgnd_1
XPHY_532 vssd1 vccd1 sky130_fd_sc_hd__tapvpwrvgnd_1
XPHY_543 vssd1 vccd1 sky130_fd_sc_hd__tapvpwrvgnd_1
XFILLER_54_1056 vssd1 vssd1 vccd1 vccd1 sky130_fd_sc_hd__decap_3
XPHY_1120 vssd1 vccd1 sky130_fd_sc_hd__tapvpwrvgnd_1
XPHY_1131 vssd1 vccd1 sky130_fd_sc_hd__tapvpwrvgnd_1
XFILLER_15_1007 vssd1 vssd1 vccd1 vccd1 sky130_fd_sc_hd__decap_12
XPHY_554 vssd1 vccd1 sky130_fd_sc_hd__tapvpwrvgnd_1
XPHY_565 vssd1 vccd1 sky130_fd_sc_hd__tapvpwrvgnd_1
XPHY_576 vssd1 vccd1 sky130_fd_sc_hd__tapvpwrvgnd_1
XPHY_587 vssd1 vccd1 sky130_fd_sc_hd__tapvpwrvgnd_1
XPHY_1175 vssd1 vccd1 sky130_fd_sc_hd__tapvpwrvgnd_1
XPHY_1164 vssd1 vccd1 sky130_fd_sc_hd__tapvpwrvgnd_1
XPHY_1153 vssd1 vccd1 sky130_fd_sc_hd__tapvpwrvgnd_1
XPHY_1142 vssd1 vccd1 sky130_fd_sc_hd__tapvpwrvgnd_1
XFILLER_8_714 vssd1 vssd1 vccd1 vccd1 sky130_fd_sc_hd__decap_12
XPHY_598 vssd1 vccd1 sky130_fd_sc_hd__tapvpwrvgnd_1
XPHY_1197 vssd1 vccd1 sky130_fd_sc_hd__tapvpwrvgnd_1
XPHY_1186 vssd1 vccd1 sky130_fd_sc_hd__tapvpwrvgnd_1
XFILLER_11_286 vssd1 vssd1 vccd1 vccd1 sky130_fd_sc_hd__decap_12
XFILLER_4_942 vssd1 vssd1 vccd1 vccd1 sky130_fd_sc_hd__decap_4
XFILLER_4_997 vssd1 vssd1 vccd1 vccd1 sky130_fd_sc_hd__fill_1
XFILLER_61_1027 vssd1 vssd1 vccd1 vccd1 sky130_fd_sc_hd__decap_12
XFILLER_59_82 vssd1 vssd1 vccd1 vccd1 sky130_fd_sc_hd__decap_12
XFILLER_39_607 vssd1 vssd1 vccd1 vccd1 sky130_fd_sc_hd__decap_12
XFILLER_47_640 vssd1 vssd1 vccd1 vccd1 sky130_fd_sc_hd__decap_12
XFILLER_35_835 vssd1 vssd1 vccd1 vccd1 sky130_fd_sc_hd__decap_12
XFILLER_35_868 vssd1 vssd1 vccd1 vccd1 sky130_fd_sc_hd__decap_12
XFILLER_61_197 vssd1 vssd1 vccd1 vccd1 sky130_fd_sc_hd__decap_12
XFILLER_29_106 vssd1 vssd1 vccd1 vccd1 sky130_fd_sc_hd__decap_8
XFILLER_29_139 vssd1 vssd1 vccd1 vccd1 sky130_fd_sc_hd__decap_12
XFILLER_37_172 vssd1 vssd1 vccd1 vccd1 sky130_fd_sc_hd__decap_12
XFILLER_53_665 vssd1 vssd1 vccd1 vccd1 sky130_fd_sc_hd__decap_12
Xclkbuf_1_0_1_wb_clk_i clkbuf_1_0_1_wb_clk_i/A vssd1 vssd1 vccd1 vccd1 clkbuf_2_1_0_wb_clk_i/A
+ sky130_fd_sc_hd__clkbuf_1
XFILLER_40_315 vssd1 vssd1 vccd1 vccd1 sky130_fd_sc_hd__decap_12
XFILLER_21_551 vssd1 vssd1 vccd1 vccd1 sky130_fd_sc_hd__decap_12
XFILLER_20_54 vssd1 vssd1 vccd1 vccd1 sky130_fd_sc_hd__decap_12
XFILLER_20_87 vssd1 vssd1 vccd1 vccd1 sky130_fd_sc_hd__decap_12
Xinput312 wbs_adr_i[23] vssd1 vssd1 vccd1 vccd1 input312/X sky130_fd_sc_hd__buf_1
Xinput301 wbs_adr_i[13] vssd1 vssd1 vccd1 vccd1 input301/X sky130_fd_sc_hd__buf_1
XFILLER_1_978 vssd1 vssd1 vccd1 vccd1 sky130_fd_sc_hd__decap_4
XFILLER_0_433 vssd1 vssd1 vccd1 vccd1 sky130_fd_sc_hd__fill_2
XFILLER_0_444 vssd1 vssd1 vccd1 vccd1 sky130_fd_sc_hd__decap_4
Xinput345 wbs_dat_i[23] vssd1 vssd1 vccd1 vccd1 _499_/B1 sky130_fd_sc_hd__buf_4
Xinput334 wbs_dat_i[13] vssd1 vssd1 vccd1 vccd1 _515_/B1 sky130_fd_sc_hd__buf_6
Xinput323 wbs_adr_i[4] vssd1 vssd1 vccd1 vccd1 _283_/B sky130_fd_sc_hd__clkbuf_4
XFILLER_64_908 vssd1 vssd1 vccd1 vccd1 sky130_fd_sc_hd__decap_6
Xinput356 wbs_dat_i[4] vssd1 vssd1 vccd1 vccd1 _530_/B1 sky130_fd_sc_hd__buf_4
Xinput367 wbs_we_i vssd1 vssd1 vccd1 vccd1 _424_/A sky130_fd_sc_hd__buf_4
XFILLER_29_640 vssd1 vssd1 vccd1 vccd1 sky130_fd_sc_hd__decap_12
X_732_ _792_/CLK _732_/D vssd1 vssd1 vccd1 vccd1 _732_/Q sky130_fd_sc_hd__dfxtp_4
XFILLER_57_982 vssd1 vssd1 vccd1 vccd1 sky130_fd_sc_hd__decap_12
X_663_ vssd1 vssd1 vccd1 vccd1 _663_/HI _663_/LO sky130_fd_sc_hd__conb_1
XFILLER_17_824 vssd1 vssd1 vccd1 vccd1 sky130_fd_sc_hd__decap_12
X_594_ vssd1 vssd1 vccd1 vccd1 _594_/HI _594_/LO sky130_fd_sc_hd__conb_1
XFILLER_45_51 vssd1 vssd1 vccd1 vccd1 sky130_fd_sc_hd__decap_6
XFILLER_17_868 vssd1 vssd1 vccd1 vccd1 sky130_fd_sc_hd__decap_12
XPHY_340 vssd1 vccd1 sky130_fd_sc_hd__tapvpwrvgnd_1
XPHY_351 vssd1 vccd1 sky130_fd_sc_hd__tapvpwrvgnd_1
XFILLER_8_522 vssd1 vssd1 vccd1 vccd1 sky130_fd_sc_hd__decap_12
XPHY_362 vssd1 vccd1 sky130_fd_sc_hd__tapvpwrvgnd_1
XPHY_373 vssd1 vccd1 sky130_fd_sc_hd__tapvpwrvgnd_1
XPHY_384 vssd1 vccd1 sky130_fd_sc_hd__tapvpwrvgnd_1
XPHY_395 vssd1 vccd1 sky130_fd_sc_hd__tapvpwrvgnd_1
XFILLER_61_94 vssd1 vssd1 vccd1 vccd1 sky130_fd_sc_hd__decap_12
XFILLER_8_555 vssd1 vssd1 vccd1 vccd1 sky130_fd_sc_hd__decap_12
XANTENNA_5 _702_/D vssd1 vssd1 vccd1 vccd1 sky130_fd_sc_hd__diode_2
XFILLER_6_56 vssd1 vssd1 vccd1 vccd1 sky130_fd_sc_hd__decap_8